# generated using pymatgen
data_AlN
_symmetry_space_group_name_H-M   'P 1'
_cell_length_a   3.12664153
_cell_length_b   3.12664143
_cell_length_c   5.00715332
_cell_angle_alpha   90.00000043
_cell_angle_beta   89.99999986
_cell_angle_gamma   119.99999965
_symmetry_Int_Tables_number   1
_chemical_formula_structural   AlN
_chemical_formula_sum   'Al2 N2'
_cell_volume   42.39139351
_cell_formula_units_Z   2
loop_
 _symmetry_equiv_pos_site_id
 _symmetry_equiv_pos_as_xyz
  1  'x, y, z'
loop_
 _atom_site_type_symbol
 _atom_site_label
 _atom_site_symmetry_multiplicity
 _atom_site_fract_x
 _atom_site_fract_y
 _atom_site_fract_z
 _atom_site_occupancy
  Al  Al0  1  0.66666667  0.33333333  0.49932157  1
  Al  Al1  1  0.33333333  0.66666667  0.99932156  1
  N  N2  1  0.66666667  0.33333333  0.88067843  1
  N  N3  1  0.33333333  0.66666667  0.38067844  1
