# generated using pymatgen
data_CsSnI3
_symmetry_space_group_name_H-M   'P 1'
_cell_length_a   6.27081715
_cell_length_b   6.27081724
_cell_length_c   6.27081711
_cell_angle_alpha   89.99999964
_cell_angle_beta   89.99999969
_cell_angle_gamma   89.99999972
_symmetry_Int_Tables_number   1
_chemical_formula_structural   CsSnI3
_chemical_formula_sum   'Cs1 Sn1 I3'
_cell_volume   246.58827085
_cell_formula_units_Z   1
loop_
 _symmetry_equiv_pos_site_id
 _symmetry_equiv_pos_as_xyz
  1  'x, y, z'
loop_
 _atom_site_type_symbol
 _atom_site_label
 _atom_site_symmetry_multiplicity
 _atom_site_fract_x
 _atom_site_fract_y
 _atom_site_fract_z
 _atom_site_occupancy
  Cs  Cs0  1  0.00000000  0.00000000  -0.00000000  1
  I  I1  1  0.50000000  0.50000000  0.00000000  1
  I  I2  1  0.50000000  -0.00000000  0.50000000  1
  I  I3  1  -0.00000000  0.50000000  0.50000000  1
  Sn  Sn4  1  0.50000000  0.50000000  0.50000000  1
