# generated using pymatgen
data_CsSnI3
_symmetry_space_group_name_H-M   'P 1'
_cell_length_a   4.84918880
_cell_length_b   10.69167480
_cell_length_c   18.19616575
_cell_angle_alpha   89.99999030
_cell_angle_beta   90.00000262
_cell_angle_gamma   89.99999762
_symmetry_Int_Tables_number   1
_chemical_formula_structural   CsSnI3
_chemical_formula_sum   'Cs4 Sn4 I12'
_cell_volume   943.39749344
_cell_formula_units_Z   4
loop_
 _symmetry_equiv_pos_site_id
 _symmetry_equiv_pos_as_xyz
  1  'x, y, z'
loop_
 _atom_site_type_symbol
 _atom_site_label
 _atom_site_symmetry_multiplicity
 _atom_site_fract_x
 _atom_site_fract_y
 _atom_site_fract_z
 _atom_site_occupancy
  Cs  Cs0  1  0.75000000  0.57552416  0.17186806  1
  Cs  Cs1  1  0.25000001  0.42447584  0.82813194  1
  Cs  Cs2  1  0.75000000  0.07552414  0.32813195  1
  Cs  Cs3  1  0.25000000  0.92447584  0.67186806  1
  I  I4  1  0.75000000  0.21397041  0.70606567  1
  I  I5  1  0.25000000  0.78602961  0.29393431  1
  I  I6  1  0.75000000  0.97123818  0.11227438  1
  I  I7  1  0.25000000  0.02876181  0.88772566  1
  I  I8  1  0.74999999  0.47123818  0.38772564  1
  I  I9  1  0.25000001  0.52876182  0.61227437  1
  I  I10  1  0.25000002  0.66813711  0.00020614  1
  I  I11  1  0.24999999  0.16813710  0.49979388  1
  I  I12  1  0.25000001  0.28602959  0.20606567  1
  I  I13  1  0.74999999  0.83186292  0.50020614  1
  I  I14  1  0.75000000  0.33186292  0.99979386  1
  I  I15  1  0.74999999  0.71397042  0.79393433  1
  Sn  Sn16  1  0.75000000  0.84420702  0.94393743  1
  Sn  Sn17  1  0.25000000  0.15579296  0.05606252  1
  Sn  Sn18  1  0.74999998  0.34420702  0.55606253  1
  Sn  Sn19  1  0.24999999  0.65579297  0.44393746  1
